tests/data/power_flow/pandapower-asymmetric-asym_gen/input.json
{
  "node": [
    {
      "id": 1,
      "u_rated": 10500.0
    },
    {
      "id": 2,
      "u_rated": 10500.0
    }
  ],
  "line": [
    {
      "id": 3,
      "from_node": 1,
      "to_node": 2,
      "from_status": 1,
      "to_status": 1,
      "r1": 0.25,
      "x1": 0.2,
      "c1": 1e-05,
      "tan1": 0.0,
      "r0": 0.25,
      "x0": 0.2,
      "c0": 1e-05,
      "tan0": 0.0,
      "i_n": 1000.0
    }
  ],
  "asym_gen": [
    {
      "id": 6,
      "node": 2,
      "status": 1,
      "type": 0,
      "p_specified": [
        10000.0,
        9000.0,
        10500.0
      ],
      "q_specified": [
        2000.0,
        1500.0,
        2500.0
      ]
    },
    {
      "id": 7,
      "node": 2,
      "status": 0,
      "type": 2,
      "p_specified": [
        10000.0,
        9000.0,
        10500.0
      ],
      "q_specified": [
        2000.0,
        1500.0,
        2500.0
      ]
    }
  ],
  "source": [
    {
      "id": 4,
      "node": 1,
      "status": 1,
      "u_ref": 1.0,
      "sk": 1e+20,
      "rx_ratio": 0.1,
      "z01_ratio": 1.0
    }
  ]
}