tests/data/power_flow/pandapower-asymmetric-asym_gen/asym_output.json
{
  "asym_gen": [
    {
      "id": 6,
      "p": [
        10000.0,
        9000.0,
        10499.999999999998
      ],
      "q": [
        2000.0,
        1500.0,
        2500.0
      ]
    },
    {
      "id": 7,
      "p": [
        0.0,
        0.0,
        0.0
      ],
      "q": [
        0.0,
        0.0,
        0.0
      ]
    }
  ],
  "line": [
    {
      "id": 3,
      "p_from": [
        -9975.035202819938,
        -8975.569395763489,
        -10474.55724138359
      ],
      "q_from": [
        -117478.95203315021,
        -116978.27950722423,
        -117979.27664918081
      ],
      "i_from": [
        19.44873288501801,
        19.35312994598238,
        19.538084956231614
      ],
      "p_to": [
        9999.999999970947,
        9000.000027165152,
        10499.999972731099
      ],
      "q_to": [
        1999.9999927570673,
        1500.0000386836127,
        2499.9999614233116
      ],
      "i_to": [
        1.6815791337522306,
        1.5045162990340348,
        1.779757959952146
      ]
    }
  ],
  "node": [
    {
      "id": 1,
      "u_pu": [
        1.0,
        0.9999999999999999,
        0.9999999999999999
      ],
      "u": [
        6062.177826491071,
        6062.17782649107,
        6062.17782649107
      ],
      "u_angle": [
        5.471708267691534e-18,
        -2.0943951023931953,
        2.0943951023931953
      ]
    },
    {
      "id": 2,
      "u_pu": [
        1.0003931013476055,
        1.0003835782305475,
        1.0003992225528033
      ],
      "u": [
        6064.560876764089,
        6064.503145935019,
        6064.597984598509
      ],
      "u_angle": [
        -0.00035205317157780173,
        -2.094749191470762,
        2.094042366567564
      ]
    }
  ]
}