tests/data/power_flow/pandapower-asymmetric-asym_gen/pgm_asym_output.json
{
  "asym_gen": [
    {
      "id": 6,
      "energized": 1,
      "p": [
        10000.0,
        9000.0,
        10500.0
      ],
      "q": [
        2000.0,
        1500.0,
        2500.0
      ],
      "i": [
        1.6815791339910786,
        1.5045162935675498,
        1.7797579657988998
      ],
      "s": [
        10198.03902718557,
        9124.14379544733,
        10793.51657246145
      ],
      "pf": [
        0.9805806756909201,
        0.9863939238321437,
        0.972806214685367
      ]
    },
    {
      "id": 7,
      "energized": 1,
      "p": [
        0.0,
        0.0,
        0.0
      ],
      "q": [
        0.0,
        0.0,
        0.0
      ],
      "i": [
        0.0,
        0.0,
        0.0
      ],
      "s": [
        0.0,
        0.0,
        0.0
      ],
      "pf": [
        0.0,
        0.0,
        0.0
      ]
    }
  ],
  "line": [
    {
      "id": 3,
      "energized": 1,
      "loading": 0.01953808496295314,
      "p_from": [
        -9975.035202842306,
        -8975.569368611297,
        -10474.557268661985
      ],
      "q_from": [
        -117478.95204038669,
        -116978.27946850887,
        -117979.2766876667
      ],
      "i_from": [
        19.44873288620769,
        19.353129939271994,
        19.538084962953143
      ],
      "s_from": [
        117901.67725611634,
        117322.1151910556,
        118443.34543451351
      ],
      "p_to": [
        9999.999999993173,
        8999.999999976117,
        10500.000000034486
      ],
      "q_to": [
        2000.0000000096045,
        1499.9999999916392,
        2499.999999886648
      ],
      "i_to": [
        1.6815791339902852,
        1.5045162935634386,
        1.7797579658001024
      ],
      "s_to": [
        10198.03902718076,
        9124.143795422397,
        10793.516572468743
      ]
    }
  ],
  "node": [
    {
      "id": 1,
      "energized": 1,
      "u_pu": [
        1.0000000000000036,
        1.0000000000000036,
        1.0000000000000036
      ],
      "u": [
        6062.177826491094,
        6062.177826491094,
        6062.177826491094
      ],
      "u_angle": [
        -5.702152142710186e-17,
        -2.0943951023931957,
        2.094395102393195
      ]
    },
    {
      "id": 2,
      "energized": 1,
      "u_pu": [
        1.0003931013476488,
        1.0003835782301558,
        1.0003992225532021
      ],
      "u": [
        6064.5608767643525,
        6064.5031459326465,
        6064.597984600929
      ],
      "u_angle": [
        -0.00035205317162696217,
        -2.094749191470647,
        2.0940423665674506
      ]
    }
  ],
  "source": [
    {
      "id": 4,
      "energized": 1,
      "p": [
        -9892.322973170112,
        -6394.131042273043,
        5190.74884016978
      ],
      "q": [
        -118025.20300068299,
        -123019.23066032167,
        -119461.96061344891
      ],
      "i": [
        19.53737502971968,
        20.320303190225015,
        19.7247066364678
      ],
      "s": [
        118439.04169300737,
        123185.29142735826,
        119574.67920563676
      ],
      "pf": [
        -0.08352248407084295,
        -0.05190661131847571,
        0.04341010048827367
      ]
    }
  ]
}